Recorde/case5_makepf.txt

┍━━━━━━━━━━━━━━━━━━━━━━━━━━━━━━━━━━━━━━━━━━━━━━━━━━━━━━━━━━━━━━━━━━━━━━━━━━━━━━┑
                                正在运行 IEEE 5                                
┕━━━━━━━━━━━━━━━━━━━━━━━━━━━━━━━━━━━━━━━━━━━━━━━━━━━━━━━━━━━━━━━━━━━━━━━━━━━━━━┙

┍━━━━━━━━━━━━━━━━━━━━━━━━━━━━━━━━━━━━━━━━━━━━━━━━━━━━━━━━━━━━━━━━━━━━━━━━━━━━━━┑
                         迭代结果: 经过 3 次迭代后收敛                         
┕━━━━━━━━━━━━━━━━━━━━━━━━━━━━━━━━━━━━━━━━━━━━━━━━━━━━━━━━━━━━━━━━━━━━━━━━━━━━━━┙

╔══════════════════════════════════════════════════════════════════════════════╗
                                    Bus Data                                    
╚══════════════════════════════════════════════════════════════════════════════╝
注： * 表示此节点为平衡节点，x表示此节点为孤立节点
----- ----------------  ------------------  ------------------
 Bus      Voltage          Generation             Load        
  #   Mag(pu) Ang(deg)   P (MW)   Q (MVAr)   P (MW)   Q (MVAr)
----- ------- --------  --------  --------  --------  --------
    1  1.000    3.273    210.00     30.73       -         -   
    2  0.989   -0.759       -         -      300.00     98.61 
    3  1.000   -0.492    323.49    194.65    300.00     98.61 
    4  1.000    0.000*     5.03      5.03    400.00    131.47 
    5  1.000    4.112    466.51    -38.21       -         -   
                        --------  --------  --------  --------
               Total:   1005.03    192.20   1000.00    328.69
--------------------------------------------------------------
我的结果
╔══════════════════════════════════════════════════════════════════════════════╗
                                  Branch Data                                  
╚══════════════════════════════════════════════════════════════════════════════╝
-----  -----  -----  --------  --------  --------  --------  --------  --------
Brnch   From   To    From Bus Injection   To Bus Injection     Loss (I^2 * Z)  
  #     Bus    Bus    P (MW)   Q (MVAr)   P (MW)   Q (MVAr)   P (MW)   Q (MVAr)
-----  -----  -----  --------  --------  --------  --------  --------  --------
   1      1      2    249.77     21.96   -248.01     -4.29     1.767     17.67
   2      1      4    186.50    -13.28   -185.44     23.91     1.063     10.63
   3      1      5   -226.27     24.30    226.60    -20.99     0.331      3.31
   4      2      3    -51.99    -93.07     52.12     94.32     0.125      1.25
   5      3      4    -28.63      2.99     28.65     -2.74     0.025      0.25
   6      4      5   -238.19     32.49    239.91    -15.32     1.716     17.16
                                                             --------  --------
                                                    Total:     5.027     50.27
时间已过 0.016121 秒。
>> 